/*--------------------------------*- C++ -*----------------------------------*\
| =========                 |                                                 |
| \\      /  F ield         | OpenFOAM: The Open Source CFD Toolbox           |
|  \\    /   O peration     | Version:  2312                                  |
|   \\  /    A nd           | Website:  www.openfoam.com                      |
|    \\/     M anipulation  |                                                 |
\*---------------------------------------------------------------------------*/
FoamFile
{
    version     2.0;
    format      ascii;
    arch        "LSB;label=32;scalar=64";
    class       featureEdgeMesh;
    location    "constant/triSurface";
    object      model_m.eMesh;
}
// * * * * * * * * * * * * * * * * * * * * * * * * * * * * * * * * * * * * * //


// points:

458
(
(0.00999624 0.00027434 1.2)
(0.01 0 1.2)
(0.01 0 0)
(0.00999624 0.00027434 0)
(0.00998495 0.000548474 1.2)
(0.00998495 0.000548474 0)
(0.00996614 0.000822196 1.2)
(0.00996614 0.000822196 0)
(0.00993984 0.0010953 1.2)
(0.00993984 0.0010953 0)
(0.00990605 0.00136758 1.2)
(0.00990605 0.00136758 0)
(0.0098648 0.00163882 1.2)
(0.0098648 0.00163882 0)
(0.00981613 0.00190884 1.2)
(0.00981613 0.00190884 0)
(0.00976006 0.00217742 1.2)
(0.00976006 0.00217742 0)
(0.00969666 0.00244435 1.2)
(0.00969666 0.00244435 0)
(0.00962595 0.00270945 0)
(0.00962595 0.00270945 1.2)
(0.00954799 0.00297251 0)
(0.00954799 0.00297251 1.2)
(0.00946285 0.00323333 0)
(0.00946285 0.00323333 1.2)
(0.00937059 0.00349172 1.2)
(0.00937059 0.00349172 0)
(0.00927127 0.00374748 1.2)
(0.00927127 0.00374748 0)
(0.00916497 0.00400042 1.2)
(0.00916497 0.00400042 0)
(0.00905177 0.00425034 1.2)
(0.00905177 0.00425034 0)
(0.00893176 0.00449707 1.2)
(0.00880503 0.00474041 1.2)
(0.00893176 0.00449707 0)
(0.00880503 0.00474041 0)
(0.00867166 0.00498019 1.2)
(0.00867166 0.00498019 0)
(0.00853177 0.00521621 1.2)
(0.00853177 0.00521621 0)
(0.00838546 0.00544831 1.2)
(0.00823283 0.0056763 1.2)
(0.00838546 0.00544831 0)
(0.00823283 0.0056763 0)
(0.00807401 0.00590003 1.2)
(0.00790911 0.00611931 1.2)
(0.00807401 0.00590003 0)
(0.00790911 0.00611931 0)
(0.00773826 0.00633399 1.2)
(0.00773826 0.00633399 0)
(0.00756158 0.00654389 1.2)
(0.00737921 0.00674888 1.2)
(0.00756158 0.00654389 0)
(0.00737921 0.00674888 0)
(0.00719128 0.00694878 1.2)
(0.00699794 0.00714345 1.2)
(0.00719128 0.00694878 0)
(0.00679933 0.00733274 1.2)
(0.00699794 0.00714345 0)
(0.00679933 0.00733274 0)
(0.00659561 0.00751651 1.2)
(0.00638692 0.00769463 1.2)
(0.00659561 0.00751651 0)
(0.00638692 0.00769463 0)
(0.00617342 0.00786695 1.2)
(0.00617342 0.00786695 0)
(0.00595527 0.00803335 1.2)
(0.00595527 0.00803335 0)
(0.00573264 0.00819371 1.2)
(0.00573264 0.00819371 0)
(0.0055057 0.00834789 1.2)
(0.0055057 0.00834789 0)
(0.00527461 0.00849579 0)
(0.00527461 0.00849579 1.2)
(0.00503955 0.0086373 1.2)
(0.00503955 0.0086373 0)
(0.0048007 0.0087723 0)
(0.0048007 0.0087723 1.2)
(0.00455823 0.0089007 0)
(0.00455823 0.0089007 1.2)
(0.00431233 0.0090224 0)
(0.00431233 0.0090224 1.2)
(0.00406319 0.00913731 0)
(0.00406319 0.00913731 1.2)
(0.00381099 0.00924534 1.2)
(0.00381099 0.00924534 0)
(0.00355591 0.00934642 0)
(0.00355591 0.00934642 1.2)
(0.00329817 0.00944045 0)
(0.00329817 0.00944045 1.2)
(0.00303794 0.00952738 0)
(0.00303794 0.00952738 1.2)
(0.00277542 0.00960714 1.2)
(0.00277542 0.00960714 0)
(0.00251081 0.00967966 1.2)
(0.00251081 0.00967966 0)
(0.00224431 0.0097449 1.2)
(0.00224431 0.0097449 0)
(0.00197613 0.0098028 1.2)
(0.00197613 0.0098028 0)
(0.00170645 0.00985333 1.2)
(0.00170645 0.00985333 0)
(0.00143549 0.00989643 1.2)
(0.00143549 0.00989643 0)
(0.00116345 0.00993209 1.2)
(0.000890537 0.00996027 1.2)
(0.00116345 0.00993209 0)
(0.000890537 0.00996027 0)
(0.000616951 0.00998095 1.2)
(0.000616951 0.00998095 0)
(0.000342901 0.00999412 1.2)
(0.000342901 0.00999412 0)
(6.8593e-05 0.00999976 1.2)
(6.8593e-05 0.00999976 0)
(-0.000205767 0.00999788 1.2)
(-0.000205767 0.00999788 0)
(-0.000479972 0.00998847 1.2)
(-0.000479972 0.00998847 0)
(-0.000753815 0.00997155 1.2)
(-0.000753815 0.00997155 0)
(-0.00102709 0.00994711 1.2)
(-0.00102709 0.00994711 0)
(-0.00129959 0.00991519 0)
(-0.00129959 0.00991519 1.2)
(-0.00157112 0.00987581 0)
(-0.00157112 0.00987581 1.2)
(-0.00184146 0.00982899 0)
(-0.00184146 0.00982899 1.2)
(-0.00211042 0.00977477 0)
(-0.00211042 0.00977477 1.2)
(-0.00237778 0.00971319 0)
(-0.00237778 0.00971319 1.2)
(-0.00264336 0.00964431 0)
(-0.00264336 0.00964431 1.2)
(-0.00290695 0.00956816 0)
(-0.00290695 0.00956816 1.2)
(-0.00316835 0.00948481 0)
(-0.00316835 0.00948481 1.2)
(-0.00342736 0.00939432 0)
(-0.00342736 0.00939432 1.2)
(-0.0036838 0.00929675 0)
(-0.0036838 0.00929675 1.2)
(-0.00393746 0.00919219 0)
(-0.00393746 0.00919219 1.2)
(-0.00418816 0.00908071 0)
(-0.00418816 0.00908071 1.2)
(-0.0044357 0.0089624 1.2)
(-0.0044357 0.0089624 0)
(-0.0046799 0.00883734 0)
(-0.0046799 0.00883734 1.2)
(-0.00492059 0.00870562 0)
(-0.00492059 0.00870562 1.2)
(-0.00515757 0.00856735 0)
(-0.00515757 0.00856735 1.2)
(-0.00539066 0.00842263 0)
(-0.00539066 0.00842263 1.2)
(-0.0056197 0.00827158 0)
(-0.0056197 0.00827158 1.2)
(-0.00584451 0.00811429 1.2)
(-0.00584451 0.00811429 0)
(-0.00606492 0.0079509 0)
(-0.00606492 0.0079509 1.2)
(-0.00628076 0.00778152 1.2)
(-0.00628076 0.00778152 0)
(-0.00649187 0.00760629 1.2)
(-0.0066981 0.00742532 1.2)
(-0.00649187 0.00760629 0)
(-0.0066981 0.00742532 0)
(-0.00689929 0.00723877 1.2)
(-0.00689929 0.00723877 0)
(-0.00709528 0.00704677 1.2)
(-0.00709528 0.00704677 0)
(-0.00728593 0.00684947 0)
(-0.00728593 0.00684947 1.2)
(-0.0074711 0.00664701 0)
(-0.0074711 0.00664701 1.2)
(-0.00765064 0.00643955 0)
(-0.00765064 0.00643955 1.2)
(-0.00782442 0.00622723 0)
(-0.00782442 0.00622723 1.2)
(-0.00799231 0.00601023 0)
(-0.00799231 0.00601023 1.2)
(-0.00815419 0.00578871 0)
(-0.00815419 0.00578871 1.2)
(-0.00830993 0.00556283 0)
(-0.00830993 0.00556283 1.2)
(-0.00845941 0.00533276 0)
(-0.00845941 0.00533276 1.2)
(-0.00860253 0.00509868 0)
(-0.00860253 0.00509868 1.2)
(-0.00873917 0.00486076 0)
(-0.00873917 0.00486076 1.2)
(-0.00886923 0.00461918 0)
(-0.00886923 0.00461918 1.2)
(-0.00899261 0.00437412 0)
(-0.00899261 0.00437412 1.2)
(-0.00910923 0.00412577 0)
(-0.00910923 0.00412577 1.2)
(-0.00921899 0.00387431 1.2)
(-0.00921899 0.00387431 0)
(-0.0093218 0.00361994 1.2)
(-0.0093218 0.00361994 0)
(-0.00941761 0.00336284 1.2)
(-0.00941761 0.00336284 0)
(-0.00950632 0.00310321 1.2)
(-0.00950632 0.00310321 0)
(-0.00958787 0.00284125 1.2)
(-0.00958787 0.00284125 0)
(-0.00966221 0.00257715 1.2)
(-0.00966221 0.00257715 0)
(-0.00972928 0.0023111 1.2)
(-0.00972928 0.0023111 0)
(-0.00978902 0.00204332 1.2)
(-0.00978902 0.00204332 0)
(-0.00984139 0.001774 1.2)
(-0.00988635 0.00150334 1.2)
(-0.00984139 0.001774 0)
(-0.00988635 0.00150334 0)
(-0.00992387 0.00123155 1.2)
(-0.00992387 0.00123155 0)
(-0.00995393 0.000958837 0)
(-0.00995393 0.000958837 1.2)
(-0.00997648 0.000685399 0)
(-0.00997648 0.000685399 1.2)
(-0.00999153 0.000411446 0)
(-0.00999153 0.000411446 1.2)
(-0.00999906 0.000137183 1.2)
(-0.00999906 0.000137183 0)
(-0.00999906 -0.000137183 1.2)
(-0.00999153 -0.000411446 1.2)
(-0.00999906 -0.000137183 0)
(-0.00999153 -0.000411446 0)
(-0.00997648 -0.000685399 1.2)
(-0.00997648 -0.000685399 0)
(-0.00995393 -0.000958837 1.2)
(-0.00992387 -0.00123155 1.2)
(-0.00995393 -0.000958837 0)
(-0.00992387 -0.00123155 0)
(-0.00988635 -0.00150334 1.2)
(-0.00984139 -0.001774 1.2)
(-0.00988635 -0.00150334 0)
(-0.00978902 -0.00204332 1.2)
(-0.00984139 -0.001774 0)
(-0.00978902 -0.00204332 0)
(-0.00972928 -0.0023111 1.2)
(-0.00972928 -0.0023111 0)
(-0.00966221 -0.00257715 1.2)
(-0.00966221 -0.00257715 0)
(-0.00958787 -0.00284125 1.2)
(-0.00958787 -0.00284125 0)
(-0.00950632 -0.00310321 1.2)
(-0.00941761 -0.00336284 1.2)
(-0.00950632 -0.00310321 0)
(-0.0093218 -0.00361994 1.2)
(-0.00941761 -0.00336284 0)
(-0.0093218 -0.00361994 0)
(-0.00921899 -0.00387431 1.2)
(-0.00910923 -0.00412577 1.2)
(-0.00921899 -0.00387431 0)
(-0.00899261 -0.00437412 1.2)
(-0.00910923 -0.00412577 0)
(-0.00899261 -0.00437412 0)
(-0.00886923 -0.00461918 1.2)
(-0.00886923 -0.00461918 0)
(-0.00873917 -0.00486076 1.2)
(-0.00860253 -0.00509868 1.2)
(-0.00873917 -0.00486076 0)
(-0.00860253 -0.00509868 0)
(-0.00845941 -0.00533276 1.2)
(-0.00830993 -0.00556283 1.2)
(-0.00845941 -0.00533276 0)
(-0.00830993 -0.00556283 0)
(-0.00815419 -0.00578871 0)
(-0.00815419 -0.00578871 1.2)
(-0.00799231 -0.00601023 0)
(-0.00799231 -0.00601023 1.2)
(-0.00782442 -0.00622723 0)
(-0.00782442 -0.00622723 1.2)
(-0.00765064 -0.00643955 1.2)
(-0.00765064 -0.00643955 0)
(-0.0074711 -0.00664701 0)
(-0.0074711 -0.00664701 1.2)
(-0.00728593 -0.00684947 1.2)
(-0.00728593 -0.00684947 0)
(-0.00709528 -0.00704677 0)
(-0.00709528 -0.00704677 1.2)
(-0.00689929 -0.00723877 0)
(-0.00689929 -0.00723877 1.2)
(-0.0066981 -0.00742532 1.2)
(-0.0066981 -0.00742532 0)
(-0.00649187 -0.00760629 0)
(-0.00649187 -0.00760629 1.2)
(-0.00628076 -0.00778152 1.2)
(-0.00628076 -0.00778152 0)
(-0.00606492 -0.0079509 1.2)
(-0.00606492 -0.0079509 0)
(-0.00584451 -0.00811429 1.2)
(-0.0056197 -0.00827158 1.2)
(-0.00584451 -0.00811429 0)
(-0.00539066 -0.00842263 1.2)
(-0.0056197 -0.00827158 0)
(-0.00539066 -0.00842263 0)
(-0.00515757 -0.00856735 1.2)
(-0.00492059 -0.00870562 1.2)
(-0.00515757 -0.00856735 0)
(-0.0046799 -0.00883734 1.2)
(-0.00492059 -0.00870562 0)
(-0.0046799 -0.00883734 0)
(-0.0044357 -0.0089624 1.2)
(-0.00418816 -0.00908071 1.2)
(-0.0044357 -0.0089624 0)
(-0.00418816 -0.00908071 0)
(-0.00393746 -0.00919219 1.2)
(-0.0036838 -0.00929675 1.2)
(-0.00393746 -0.00919219 0)
(-0.00342736 -0.00939432 1.2)
(-0.0036838 -0.00929675 0)
(-0.00342736 -0.00939432 0)
(-0.00316835 -0.00948481 1.2)
(-0.00316835 -0.00948481 0)
(-0.00290695 -0.00956816 1.2)
(-0.00290695 -0.00956816 0)
(-0.00264336 -0.00964431 0)
(-0.00264336 -0.00964431 1.2)
(-0.00237778 -0.00971319 1.2)
(-0.00237778 -0.00971319 0)
(-0.00211042 -0.00977477 0)
(-0.00211042 -0.00977477 1.2)
(-0.00184146 -0.00982899 1.2)
(-0.00184146 -0.00982899 0)
(-0.00157112 -0.00987581 1.2)
(-0.00157112 -0.00987581 0)
(-0.00129959 -0.00991519 0)
(-0.00129959 -0.00991519 1.2)
(-0.00102709 -0.00994711 1.2)
(-0.00102709 -0.00994711 0)
(-0.000753815 -0.00997155 1.2)
(-0.000753815 -0.00997155 0)
(-0.000479972 -0.00998847 0)
(-0.000479972 -0.00998847 1.2)
(-0.000205767 -0.00999788 1.2)
(-0.000205767 -0.00999788 0)
(6.8593e-05 -0.00999976 1.2)
(6.8593e-05 -0.00999976 0)
(0.000342901 -0.00999412 0)
(0.000342901 -0.00999412 1.2)
(0.000616951 -0.00998095 1.2)
(0.000616951 -0.00998095 0)
(0.000890537 -0.00996027 1.2)
(0.000890537 -0.00996027 0)
(0.00116345 -0.00993209 0)
(0.00116345 -0.00993209 1.2)
(0.00143549 -0.00989643 1.2)
(0.00143549 -0.00989643 0)
(0.00170645 -0.00985333 0)
(0.00170645 -0.00985333 1.2)
(0.00197613 -0.0098028 0)
(0.00197613 -0.0098028 1.2)
(0.00224431 -0.0097449 0)
(0.00224431 -0.0097449 1.2)
(0.00251081 -0.00967966 1.2)
(0.00251081 -0.00967966 0)
(0.00277542 -0.00960714 1.2)
(0.00303794 -0.00952738 1.2)
(0.00277542 -0.00960714 0)
(0.00329817 -0.00944045 1.2)
(0.00303794 -0.00952738 0)
(0.00329817 -0.00944045 0)
(0.00355591 -0.00934642 1.2)
(0.00355591 -0.00934642 0)
(0.00381099 -0.00924534 1.2)
(0.00381099 -0.00924534 0)
(0.00406319 -0.00913731 0)
(0.00406319 -0.00913731 1.2)
(0.00431233 -0.0090224 1.2)
(0.00431233 -0.0090224 0)
(0.00455823 -0.0089007 0)
(0.00455823 -0.0089007 1.2)
(0.0048007 -0.0087723 0)
(0.0048007 -0.0087723 1.2)
(0.00503955 -0.0086373 1.2)
(0.00503955 -0.0086373 0)
(0.00527461 -0.00849579 0)
(0.00527461 -0.00849579 1.2)
(0.0055057 -0.00834789 1.2)
(0.0055057 -0.00834789 0)
(0.00573264 -0.00819371 0)
(0.00573264 -0.00819371 1.2)
(0.00595527 -0.00803335 1.2)
(0.00595527 -0.00803335 0)
(0.00617342 -0.00786695 0)
(0.00617342 -0.00786695 1.2)
(0.00638692 -0.00769463 1.2)
(0.00638692 -0.00769463 0)
(0.00659561 -0.00751651 0)
(0.00659561 -0.00751651 1.2)
(0.00679933 -0.00733274 1.2)
(0.00679933 -0.00733274 0)
(0.00719128 -0.00694878 1.2)
(0.00699794 -0.00714345 1.2)
(0.00699794 -0.00714345 0)
(0.00719128 -0.00694878 0)
(0.00737921 -0.00674888 1.2)
(0.00737921 -0.00674888 0)
(0.00756158 -0.00654389 1.2)
(0.00756158 -0.00654389 0)
(0.00773826 -0.00633399 1.2)
(0.00790911 -0.00611931 1.2)
(0.00773826 -0.00633399 0)
(0.00790911 -0.00611931 0)
(0.00807401 -0.00590003 1.2)
(0.00807401 -0.00590003 0)
(0.00823283 -0.0056763 1.2)
(0.00823283 -0.0056763 0)
(0.00838546 -0.00544831 1.2)
(0.00853177 -0.00521621 1.2)
(0.00838546 -0.00544831 0)
(0.00853177 -0.00521621 0)
(0.00867166 -0.00498019 1.2)
(0.00867166 -0.00498019 0)
(0.00880503 -0.00474041 1.2)
(0.00880503 -0.00474041 0)
(0.00893176 -0.00449707 0)
(0.00893176 -0.00449707 1.2)
(0.00905177 -0.00425034 0)
(0.00905177 -0.00425034 1.2)
(0.00916497 -0.00400042 1.2)
(0.00916497 -0.00400042 0)
(0.00927127 -0.00374748 1.2)
(0.00927127 -0.00374748 0)
(0.00937059 -0.00349172 1.2)
(0.00946285 -0.00323333 1.2)
(0.00937059 -0.00349172 0)
(0.00946285 -0.00323333 0)
(0.00954799 -0.00297251 1.2)
(0.00962595 -0.00270945 1.2)
(0.00954799 -0.00297251 0)
(0.00969666 -0.00244435 1.2)
(0.00962595 -0.00270945 0)
(0.00976006 -0.00217742 1.2)
(0.00969666 -0.00244435 0)
(0.00976006 -0.00217742 0)
(0.00981613 -0.00190884 1.2)
(0.0098648 -0.00163882 1.2)
(0.00981613 -0.00190884 0)
(0.0098648 -0.00163882 0)
(0.00990605 -0.00136758 1.2)
(0.00990605 -0.00136758 0)
(0.00993984 -0.0010953 1.2)
(0.00996614 -0.000822196 1.2)
(0.00993984 -0.0010953 0)
(0.00998495 -0.000548474 1.2)
(0.00996614 -0.000822196 0)
(0.00998495 -0.000548474 0)
(0.00999624 -0.00027434 1.2)
(0.00999624 -0.00027434 0)
)


// edges:

458
(
(0 1)
(2 3)
(4 0)
(3 5)
(6 4)
(5 7)
(8 6)
(7 9)
(10 8)
(9 11)
(12 10)
(11 13)
(14 12)
(13 15)
(16 14)
(15 17)
(18 16)
(17 19)
(19 20)
(21 18)
(20 22)
(23 21)
(22 24)
(25 23)
(26 25)
(24 27)
(28 26)
(27 29)
(30 28)
(29 31)
(32 30)
(31 33)
(34 32)
(35 34)
(33 36)
(36 37)
(38 35)
(37 39)
(40 38)
(39 41)
(42 40)
(43 42)
(41 44)
(44 45)
(46 43)
(47 46)
(45 48)
(48 49)
(50 47)
(49 51)
(52 50)
(53 52)
(51 54)
(54 55)
(56 53)
(57 56)
(55 58)
(59 57)
(58 60)
(60 61)
(62 59)
(63 62)
(61 64)
(64 65)
(66 63)
(65 67)
(68 66)
(67 69)
(70 68)
(69 71)
(72 70)
(71 73)
(73 74)
(75 72)
(76 75)
(74 77)
(77 78)
(79 76)
(78 80)
(81 79)
(80 82)
(83 81)
(82 84)
(85 83)
(86 85)
(84 87)
(87 88)
(89 86)
(88 90)
(91 89)
(90 92)
(93 91)
(94 93)
(92 95)
(96 94)
(95 97)
(98 96)
(97 99)
(100 98)
(99 101)
(102 100)
(101 103)
(104 102)
(103 105)
(106 104)
(107 106)
(105 108)
(108 109)
(110 107)
(109 111)
(112 110)
(111 113)
(114 112)
(113 115)
(116 114)
(115 117)
(118 116)
(117 119)
(120 118)
(119 121)
(122 120)
(121 123)
(123 124)
(125 122)
(124 126)
(127 125)
(126 128)
(129 127)
(128 130)
(131 129)
(130 132)
(133 131)
(132 134)
(135 133)
(134 136)
(137 135)
(136 138)
(139 137)
(138 140)
(141 139)
(140 142)
(143 141)
(142 144)
(145 143)
(144 146)
(147 145)
(148 147)
(146 149)
(149 150)
(151 148)
(150 152)
(153 151)
(152 154)
(155 153)
(154 156)
(157 155)
(156 158)
(159 157)
(160 159)
(158 161)
(161 162)
(163 160)
(164 163)
(162 165)
(166 164)
(167 166)
(165 168)
(168 169)
(170 167)
(169 171)
(172 170)
(171 173)
(173 174)
(175 172)
(174 176)
(177 175)
(176 178)
(179 177)
(178 180)
(181 179)
(180 182)
(183 181)
(182 184)
(185 183)
(184 186)
(187 185)
(186 188)
(189 187)
(188 190)
(191 189)
(190 192)
(193 191)
(192 194)
(195 193)
(194 196)
(197 195)
(196 198)
(199 197)
(200 199)
(198 201)
(202 200)
(201 203)
(204 202)
(203 205)
(206 204)
(205 207)
(208 206)
(207 209)
(210 208)
(209 211)
(212 210)
(211 213)
(214 212)
(213 215)
(216 214)
(217 216)
(215 218)
(218 219)
(220 217)
(219 221)
(221 222)
(223 220)
(222 224)
(225 223)
(224 226)
(227 225)
(228 227)
(226 229)
(230 228)
(231 230)
(229 232)
(232 233)
(234 231)
(233 235)
(236 234)
(237 236)
(235 238)
(238 239)
(240 237)
(241 240)
(239 242)
(243 241)
(242 244)
(244 245)
(246 243)
(245 247)
(248 246)
(247 249)
(250 248)
(249 251)
(252 250)
(253 252)
(251 254)
(255 253)
(254 256)
(256 257)
(258 255)
(259 258)
(257 260)
(261 259)
(260 262)
(262 263)
(264 261)
(263 265)
(266 264)
(267 266)
(265 268)
(268 269)
(270 267)
(271 270)
(269 272)
(272 273)
(273 274)
(275 271)
(274 276)
(277 275)
(276 278)
(279 277)
(280 279)
(278 281)
(281 282)
(283 280)
(284 283)
(282 285)
(285 286)
(287 284)
(286 288)
(289 287)
(290 289)
(288 291)
(291 292)
(293 290)
(294 293)
(292 295)
(296 294)
(295 297)
(298 296)
(299 298)
(297 300)
(301 299)
(300 302)
(302 303)
(304 301)
(305 304)
(303 306)
(307 305)
(306 308)
(308 309)
(310 307)
(311 310)
(309 312)
(312 313)
(314 311)
(315 314)
(313 316)
(317 315)
(316 318)
(318 319)
(320 317)
(319 321)
(322 320)
(321 323)
(323 324)
(325 322)
(326 325)
(324 327)
(327 328)
(329 326)
(330 329)
(328 331)
(332 330)
(331 333)
(333 334)
(335 332)
(336 335)
(334 337)
(338 336)
(337 339)
(339 340)
(341 338)
(342 341)
(340 343)
(344 342)
(343 345)
(345 346)
(347 344)
(348 347)
(346 349)
(350 348)
(349 351)
(351 352)
(353 350)
(354 353)
(352 355)
(355 356)
(357 354)
(356 358)
(359 357)
(358 360)
(361 359)
(362 361)
(360 363)
(364 362)
(365 364)
(363 366)
(367 365)
(366 368)
(368 369)
(370 367)
(369 371)
(372 370)
(371 373)
(373 374)
(375 372)
(376 375)
(374 377)
(377 378)
(379 376)
(378 380)
(381 379)
(382 381)
(380 383)
(383 384)
(385 382)
(386 385)
(384 387)
(387 388)
(389 386)
(390 389)
(388 391)
(391 392)
(393 390)
(394 393)
(392 395)
(395 396)
(397 394)
(398 397)
(396 399)
(400 401)
(399 402)
(401 398)
(402 403)
(404 400)
(403 405)
(406 404)
(405 407)
(408 406)
(409 408)
(407 410)
(410 411)
(412 409)
(411 413)
(414 412)
(413 415)
(416 414)
(417 416)
(415 418)
(418 419)
(420 417)
(419 421)
(422 420)
(421 423)
(423 424)
(425 422)
(424 426)
(427 425)
(428 427)
(426 429)
(430 428)
(429 431)
(432 430)
(433 432)
(431 434)
(434 435)
(436 433)
(437 436)
(435 438)
(439 437)
(438 440)
(441 439)
(440 442)
(442 443)
(444 441)
(445 444)
(443 446)
(446 447)
(448 445)
(447 449)
(450 448)
(451 450)
(449 452)
(453 451)
(452 454)
(454 455)
(456 453)
(455 457)
(1 456)
(457 2)
)

// * * * * * * * * * * * * * * * * * * * * * * * * * * * * * * * * * * * * * //


// ************************************************************************* //
